Circuit: * E:\Circuit Repository\Circuits\Audio output stage\Simulation\H-Bridge\H-Bridge single ended.asc

Direct Newton iteration for .op point succeeded.

Date: Sun Aug 23 16:11:17 2015
Total elapsed time: 0.816 seconds.

tnom = 27
temp = 27
method = modified trap
totiter = 2482
traniter = 2468
tranpoints = 1047
accept = 1046
rejected = 1
matrix size = 36
fillins = 43
solver = Normal
Matrix Compiler1: 4.38 KB object code size  1.8/1.5/[0.5]
Matrix Compiler2: 3.72 KB object code size  0.9/1.1/[0.8]


