Circuit: * E:\Circuit Repository\Circuits\Audio output stage\Simulation\H-Bridge\H-Bridge one.asc


Date: Sun Aug 23 14:29:13 2015
Total elapsed time: 0.642 seconds.

tnom = 27
temp = 27
method = trap
totiter = 2010
traniter = 0
tranpoints = 0
accept = 0
rejected = 0
matrix size = 26
fillins = 27
solver = Normal
Matrix Compiler1: 3.20 KB object code size  1.1/2.3/[0.3]
Matrix Compiler2: 2.60 KB object code size  0.6/0.8/[0.3]


