Circuit: * E:\Circuit Repository\Circuits\Audio output stage\Simulation\H-Bridge\H-Bridge one With Preamp.asc

Direct Newton iteration failed to find .op point.  (Use ".option noopiter" to skip.)
Starting Gmin stepping
Gmin = 10
Gmin = 1.07374
Gmin = 0.115292
Gmin = 0.0123794
Gmin = 0.00132923
Gmin = 0.000142725
Gmin = 1.5325e-005
Gmin = 1.6455e-006
Gmin = 1.76685e-007
vernier = 0.5
vernier = 0.25
vernier = 0.125
vernier = 0.0625
Gmin = 1.32848e-007
vernier = 0.0833333
vernier = 0.111111
Gmin = 1.06462e-007
vernier = 0.148148
vernier = 0.197531
Gmin = 7.51274e-008
vernier = 0.263374
Gmin = 4.29202e-008
vernier = 0.351165
vernier = 0.46822
Gmin = 1.7437e-008
vernier = 0.624294
vernier = 0.832392
Gmin = 4.33743e-009
vernier = 1
Gmin = 5.52295e-010
Gmin = 5.93023e-011
Gmin = 6.36753e-012
Gmin = 6.83709e-013
Gmin = 0
Gmin stepping succeeded in finding the operating point.


Date: Sun Aug 23 14:52:23 2015
Total elapsed time: 1.151 seconds.

tnom = 27
temp = 27
method = modified trap
totiter = 3022
traniter = 2096
tranpoints = 1049
accept = 1047
rejected = 2
matrix size = 43
fillins = 52
solver = Normal
Matrix Compiler1: 5.33 KB object code size  2.0/1.8/[0.5]
Matrix Compiler2: off  [1.2]/1.7/1.4


