Circuit: * D:\Engineering\Circuit Repository\Modules\VCA_1\Simulation\Opto-reciever.asc

WARNING: Less than two connections to node -12V.  This node is used by V6.
WARNING: Less than two connections to node 12V.  This node is used by V5.
Ignoring empty pin current: Ix(u1:1)
Ignoring empty pin current: Ix(u1:2)
.step r_opto=200000
.step r_opto=300000
.step r_opto=400000
.step r_opto=500000

Date: Tue Oct 14 00:21:43 2014
Total elapsed time: 0.400 seconds.

tnom = 27
temp = 27
method = trap
totiter = 2003
traniter = 0
tranpoints = 0
accept = 0
rejected = 0
matrix size = 8
fillins = 0
solver = Normal
Matrix Compiler1: 156 bytes object code size  0.3/0.3/[0.1]
Matrix Compiler2: 404 bytes object code size  0.2/0.4/[0.1]


