Circuit: * D:\Engineering\Circuit Repository\Circuits\Opto LED bias\_Simulation\Opto LED bias.asc

WARNING: Specified period is not longer than the sum of Trise, Tfall, and Ton for v1.  Increasing period to 0.201
Direct Newton iteration for .op point succeeded.
Ignoring empty pin current: Ix(u1:1)
Ignoring empty pin current: Ix(u1:2)
Ignoring empty pin current: Ix(u1:1)
Ignoring empty pin current: Ix(u1:2)

Date: Mon Jun 09 19:57:32 2014
Total elapsed time: 0.042 seconds.

tnom = 27
temp = 27
method = modified trap
totiter = 2087
traniter = 2084
tranpoints = 1043
accept = 1042
rejected = 1
matrix size = 6
fillins = 3
solver = Normal
Matrix Compiler1: 290 bytes object code size  0.5/0.3/[0.1]
Matrix Compiler2: 416 bytes object code size  0.3/0.5/[0.2]


