Circuit: * D:\Engineering\Circuit Repository\Circuits\Audio output stage\Simulation\input stage\Common emitter.asc

WARNING: Less than two connections to node NC_01.  This node is used by R1.
.step load=100
.step load=600
.step load=1100
.step load=1600
.step load=2100
.step load=2600
.step load=3100
.step load=3600
.step load=4100
.step load=4600
.step load=5100

Date: Sat Jun 14 09:09:36 2014
Total elapsed time: 1.565 seconds.

tnom = 27
temp = 27
method = trap
totiter = 2005
traniter = 0
tranpoints = 0
accept = 0
rejected = 0
matrix size = 13
fillins = 0
solver = Normal
Matrix Compiler1: 566 bytes object code size  0.2/0.2/[0.1]
Matrix Compiler2: 911 bytes object code size  0.2/0.3/[0.1]


