Circuit: * E:\Circuit Repository\Circuits\Audio output stage\Simulation\preamp_two\output_stage.asc


Date: Sun Aug 23 13:34:49 2015
Total elapsed time: 1.335 seconds.

tnom = 27
temp = 27
method = trap
totiter = 2014
traniter = 0
tranpoints = 0
accept = 0
rejected = 0
matrix size = 30
fillins = 34
solver = Normal
Matrix Compiler1: 3.91 KB object code size  1.3/1.2/[0.5]
Matrix Compiler2: 3.19 KB object code size  0.8/1.0/[0.3]


