Circuit: * D:\Engineering\Circuit Repository\Circuits\Audio output stage\Simulation\preamp_two\totem drive.asc


Date: Sat Jun 14 14:13:10 2014
Total elapsed time: 0.160 seconds.

tnom = 27
temp = 27
method = trap
totiter = 2009
traniter = 0
tranpoints = 0
accept = 0
rejected = 0
matrix size = 18
fillins = 16
solver = Normal
Matrix Compiler1: 2.10 KB object code size  1.7/1.2/[0.4]
Matrix Compiler2: 1.82 KB object code size  0.7/1.0/[0.4]


