Circuit: * Z:\Synthdesign\preamp\VCA.asc

Direct Newton iteration for .op point succeeded.
.step vctrl=0.5
.step vctrl=0.6
.step vctrl=0.7
.step vctrl=0.8
.step vctrl=0.9
.step vctrl=1

Date: Fri Jun 14 14:07:19 2013
Total elapsed time: 2.406 seconds.

tnom = 27
temp = 27
method = modified trap
totiter = 4453
traniter = 4442
tranpoints = 1757
accept = 1358
rejected = 399
matrix size = 34
fillins = 20
solver = Normal
Matrix Compiler1: 3.47 KB object code size  2.2/1.6/[0.6]
Matrix Compiler2: 3.18 KB object code size  0.9/1.3/[0.8]


