Circuit: * D:\Engineering\Circuit Repository\Circuits\Audio in_pre-amp\Simulation\op-amp_input.asc

WARNING: Less than two connections to node N007.  This node is used by R1.
Direct Newton iteration for .op point succeeded.
Ignoring empty pin current: Ix(u1:1)
Ignoring empty pin current: Ix(u1:2)
Ignoring empty pin current: Ix(u1:1)
Ignoring empty pin current: Ix(u1:2)

Date: Sat Jul 11 19:09:06 2015
Total elapsed time: 0.150 seconds.

tnom = 27
temp = 27
method = modified trap
totiter = 2085
traniter = 2082
tranpoints = 1042
accept = 1042
rejected = 0
matrix size = 10
fillins = 1
solver = Normal
Matrix Compiler1: 310 bytes object code size  0.4/0.2/[0.1]
Matrix Compiler2: 592 bytes object code size  0.2/0.4/[0.2]


