Circuit: * C:\Users\Marshall\Desktop\compressor\Draft1.asc

Limiting rise time of source v1 to 0.01
Limiting fall time of source v1 to 0.01
.OP point found by inspection.

Date: Sat Nov 23 15:55:49 2013
Total elapsed time: 0.065 seconds.

tnom = 27
temp = 27
method = modified trap
totiter = 2341
traniter = 2341
tranpoints = 1147
accept = 1125
rejected = 22
matrix size = 5
fillins = 0
solver = Normal
Matrix Compiler1: 150 bytes object code size  0.3/0.2/[0.1]
Matrix Compiler2: 321 bytes object code size  0.3/0.5/[0.2]


