Circuit: * C:\Users\Marshall\Desktop\compressor\Opto-reciever.asc

WARNING: Less than two connections to node -12V.  This node is used by V6.
WARNING: Less than two connections to node 12V.  This node is used by V5.
Direct Newton iteration for .op point succeeded.
Ignoring empty pin current: Ix(u1:1)
Ignoring empty pin current: Ix(u1:2)
Ignoring empty pin current: Ix(u2:1)
Ignoring empty pin current: Ix(u2:2)
Ignoring empty pin current: Ix(u1:1)
Ignoring empty pin current: Ix(u1:2)
Ignoring empty pin current: Ix(u2:1)
Ignoring empty pin current: Ix(u2:2)
.step r_opto=200000
.step r_opto=300000
.step r_opto=400000
.step r_opto=500000

Date: Sat Jun 07 12:22:46 2014
Total elapsed time: 25.288 seconds.

tnom = 27
temp = 27
method = modified trap
totiter = 1080310
traniter = 1080293
tranpoints = 540116
accept = 520766
rejected = 19350
matrix size = 19
fillins = 5
solver = Normal
Matrix Compiler1: 1.01 KB object code size  0.5/0.4/[0.1]
Matrix Compiler2: off  [0.3]/0.5/0.5


