Circuit: * C:\Users\Marshall\Desktop\compressor\optopart.asc

Direct Newton iteration for .op point succeeded.
Ignoring empty pin current: Ix(u1:1)
Ignoring empty pin current: Ix(u1:2)
Ignoring empty pin current: Ix(u2:1)
Ignoring empty pin current: Ix(u2:2)
Ignoring empty pin current: Ix(u3:1)
Ignoring empty pin current: Ix(u3:2)
Ignoring empty pin current: Ix(u1:1)
Ignoring empty pin current: Ix(u1:2)
Ignoring empty pin current: Ix(u2:1)
Ignoring empty pin current: Ix(u2:2)
Ignoring empty pin current: Ix(u3:1)
Ignoring empty pin current: Ix(u3:2)

Date: Fri Jun 06 20:53:19 2014
Total elapsed time: 0.085 seconds.

tnom = 27
temp = 27
method = modified trap
totiter = 2127
traniter = 2108
tranpoints = 1055
accept = 1054
rejected = 1
matrix size = 14
fillins = 4
solver = Normal
Matrix Compiler1: 734 bytes object code size  0.4/0.3/[0.1]
Matrix Compiler2: off  [0.3]/0.4/0.5


